
     RDKit          3D

 75 76  0  0  0  0  0  0  0  0999 V2000
    0.4993   -2.1406    2.9559 C   0  0  0  0  0  0  0  0  0  0  0  0
    0.9539   -2.2575    1.4948 C   0  0  0  0  0  0  0  0  0  0  0  0
    1.9868   -3.3805    1.3494 C   0  0  0  0  0  0  0  0  0  0  0  0
    1.5081   -0.9489    0.9296 C   0  0  0  0  0  0  0  0  0  0  0  0
    2.4838   -0.2611    1.6840 C   0  0  0  0  0  0  0  0  0  0  0  0
    3.1304    0.8774    1.2023 C   0  0  0  0  0  0  0  0  0  0  0  0
    4.1753    1.5752    2.0541 C   0  0  0  0  0  0  0  0  0  0  0  0
    5.5711    1.4507    1.4385 C   0  0  0  0  0  0  0  0  0  0  0  0
    3.8172    3.0428    2.3033 C   0  0  0  0  0  0  0  0  0  0  0  0
    2.8177    1.3143   -0.0854 C   0  0  0  0  0  0  0  0  0  0  0  0
    1.8490    0.6688   -0.8843 C   0  0  0  0  0  0  0  0  0  0  0  0
    1.6683    1.1602   -2.3259 C   0  0  0  0  0  0  0  0  0  0  0  0
    2.7830    0.6085   -3.2247 C   0  0  0  0  0  0  0  0  0  0  0  0
    1.6345    2.6915   -2.4632 C   0  0  0  0  0  0  0  0  0  0  0  0
    1.1433   -0.4613   -0.3600 C   0  0  0  0  0  0  0  0  0  0  0  0
    0.1322   -1.1800   -1.1917 C   0  0  0  0  0  0  0  0  0  0  0  0
   -1.2831   -1.0110   -1.0924 C   0  0  0  0  0  0  0  0  0  0  0  0
   -2.0708    0.0031    0.2113 P   0  0  0  0  0  0  0  0  0  0  0  0
   -3.3897   -1.0057    1.0729 C   0  0  0  0  0  0  0  0  0  0  0  0
   -4.7684   -1.0536    0.4071 C   0  0  0  0  0  0  0  0  0  0  0  0
   -3.5698   -0.4209    2.4979 C   0  0  0  0  0  0  0  0  0  0  0  0
   -2.9283   -2.4669    1.2704 C   0  0  0  0  0  0  0  0  0  0  0  0
   -2.8018    1.5118   -0.6067 C   0  0  0  0  0  0  0  0  0  0  0  0
   -3.6962    1.2462   -1.8251 C   0  0  0  0  0  0  0  0  0  0  0  0
   -3.5743    2.3720    0.4123 C   0  0  0  0  0  0  0  0  0  0  0  0
   -1.6300    2.3872   -1.1005 C   0  0  0  0  0  0  0  0  0  0  0  0
   -2.0918   -1.7112   -2.0102 C   0  0  0  0  0  0  0  0  0  0  0  0
   -1.5572   -2.5801   -2.9644 C   0  0  0  0  0  0  0  0  0  0  0  0
   -0.1894   -2.7844   -3.0225 C   0  0  0  0  0  0  0  0  0  0  0  0
    0.6410   -2.0947   -2.1443 C   0  0  0  0  0  0  0  0  0  0  0  0
    1.3386   -2.0084    3.6463 H   0  0  0  0  0  0  0  0  0  0  0  0
   -0.1831   -1.2948    3.0901 H   0  0  0  0  0  0  0  0  0  0  0  0
   -0.0263   -3.0512    3.2642 H   0  0  0  0  0  0  0  0  0  0  0  0
    0.0741   -2.5631    0.9244 H   0  0  0  0  0  0  0  0  0  0  0  0
    2.8897   -3.1818    1.9376 H   0  0  0  0  0  0  0  0  0  0  0  0
    2.2921   -3.5030    0.3044 H   0  0  0  0  0  0  0  0  0  0  0  0
    1.5695   -4.3345    1.6896 H   0  0  0  0  0  0  0  0  0  0  0  0
    2.7692   -0.6404    2.6628 H   0  0  0  0  0  0  0  0  0  0  0  0
    4.2096    1.0857    3.0366 H   0  0  0  0  0  0  0  0  0  0  0  0
    6.3250    1.8892    2.1013 H   0  0  0  0  0  0  0  0  0  0  0  0
    5.8359    0.3996    1.2786 H   0  0  0  0  0  0  0  0  0  0  0  0
    5.6396    1.9624    0.4724 H   0  0  0  0  0  0  0  0  0  0  0  0
    3.8237    3.6307    1.3791 H   0  0  0  0  0  0  0  0  0  0  0  0
    4.5345    3.5015    2.9926 H   0  0  0  0  0  0  0  0  0  0  0  0
    2.8200    3.1319    2.7487 H   0  0  0  0  0  0  0  0  0  0  0  0
    3.3635    2.1644   -0.4874 H   0  0  0  0  0  0  0  0  0  0  0  0
    0.7122    0.7994   -2.7167 H   0  0  0  0  0  0  0  0  0  0  0  0
    2.6189    0.9042   -4.2666 H   0  0  0  0  0  0  0  0  0  0  0  0
    3.7672    0.9837   -2.9219 H   0  0  0  0  0  0  0  0  0  0  0  0
    2.8287   -0.4833   -3.1933 H   0  0  0  0  0  0  0  0  0  0  0  0
    2.6269    3.1397   -2.3439 H   0  0  0  0  0  0  0  0  0  0  0  0
    0.9743    3.1528   -1.7241 H   0  0  0  0  0  0  0  0  0  0  0  0
    1.2753    2.9726   -3.4597 H   0  0  0  0  0  0  0  0  0  0  0  0
   -4.7379   -1.4728   -0.6004 H   0  0  0  0  0  0  0  0  0  0  0  0
   -5.4547   -1.6883    0.9825 H   0  0  0  0  0  0  0  0  0  0  0  0
   -5.2455   -0.0728    0.3562 H   0  0  0  0  0  0  0  0  0  0  0  0
   -2.6237   -0.4011    3.0528 H   0  0  0  0  0  0  0  0  0  0  0  0
   -3.9644    0.5988    2.4870 H   0  0  0  0  0  0  0  0  0  0  0  0
   -4.2741   -1.0245    3.0837 H   0  0  0  0  0  0  0  0  0  0  0  0
   -3.6677   -3.0377    1.8463 H   0  0  0  0  0  0  0  0  0  0  0  0
   -1.9910   -2.5255    1.8261 H   0  0  0  0  0  0  0  0  0  0  0  0
   -2.7952   -2.9985    0.3237 H   0  0  0  0  0  0  0  0  0  0  0  0
   -4.5599    0.6204   -1.6005 H   0  0  0  0  0  0  0  0  0  0  0  0
   -4.0918    2.1882   -2.2261 H   0  0  0  0  0  0  0  0  0  0  0  0
   -3.1461    0.7724   -2.6445 H   0  0  0  0  0  0  0  0  0  0  0  0
   -3.8579    3.3383   -0.0234 H   0  0  0  0  0  0  0  0  0  0  0  0
   -2.9747    2.5856    1.3054 H   0  0  0  0  0  0  0  0  0  0  0  0
   -4.5049    1.9010    0.7362 H   0  0  0  0  0  0  0  0  0  0  0  0
   -1.0918    1.8959   -1.9149 H   0  0  0  0  0  0  0  0  0  0  0  0
   -0.9168    2.6110   -0.2981 H   0  0  0  0  0  0  0  0  0  0  0  0
   -1.9867    3.3465   -1.4953 H   0  0  0  0  0  0  0  0  0  0  0  0
   -3.1703   -1.6014   -1.9963 H   0  0  0  0  0  0  0  0  0  0  0  0
   -2.2173   -3.1059   -3.6491 H   0  0  0  0  0  0  0  0  0  0  0  0
    0.2346   -3.4718   -3.7487 H   0  0  0  0  0  0  0  0  0  0  0  0
    1.7148   -2.2666   -2.2000 H   0  0  0  0  0  0  0  0  0  0  0  0
  1  2  1  0
  2  3  1  0
  2  4  1  0
  4  5  2  0
  5  6  1  0
  6  7  1  0
  7  8  1  0
  7  9  1  0
  6 10  2  0
 10 11  1  0
 11 12  1  0
 12 13  1  0
 12 14  1  0
  4 15  1  0
 15 16  1  0
 16 17  2  0
 17 18  1  0
 18 19  1  0
 19 20  1  0
 19 21  1  0
 19 22  1  0
 18 23  1  0
 23 24  1  0
 23 25  1  0
 23 26  1  0
 17 27  1  0
 27 28  2  0
 28 29  1  0
 29 30  2  0
 15 11  2  0
 30 16  1  0
  1 31  1  0
  1 32  1  0
  1 33  1  0
  2 34  1  0
  3 35  1  0
  3 36  1  0
  3 37  1  0
  5 38  1  0
  7 39  1  0
  8 40  1  0
  8 41  1  0
  8 42  1  0
  9 43  1  0
  9 44  1  0
  9 45  1  0
 10 46  1  0
 12 47  1  0
 13 48  1  0
 13 49  1  0
 13 50  1  0
 14 51  1  0
 14 52  1  0
 14 53  1  0
 20 54  1  0
 20 55  1  0
 20 56  1  0
 21 57  1  0
 21 58  1  0
 21 59  1  0
 22 60  1  0
 22 61  1  0
 22 62  1  0
 24 63  1  0
 24 64  1  0
 24 65  1  0
 25 66  1  0
 25 67  1  0
 25 68  1  0
 26 69  1  0
 26 70  1  0
 26 71  1  0
 27 72  1  0
 28 73  1  0
 29 74  1  0
 30 75  1  0
M  END
