
     RDKit          3D

 83 86  0  0  0  0  0  0  0  0999 V2000
    0.7939   -3.3624    0.7081 C   0  0  0  0  0  0  0  0  0  0  0  0
    1.6707   -2.7985   -0.4177 C   0  0  0  0  0  0  0  0  0  0  0  0
    1.0468   -3.0911   -1.7805 C   0  0  0  0  0  0  0  0  0  0  0  0
    2.1509   -1.3779   -0.0868 C   0  0  0  0  0  0  0  0  0  0  0  0
    3.1847   -1.3535    0.8877 C   0  0  0  0  0  0  0  0  0  0  0  0
    3.8215   -0.1828    1.2976 C   0  0  0  0  0  0  0  0  0  0  0  0
    4.9355   -0.1913    2.3280 C   0  0  0  0  0  0  0  0  0  0  0  0
    4.4761   -0.7876    3.6615 C   0  0  0  0  0  0  0  0  0  0  0  0
    6.1732   -0.9221    1.8018 C   0  0  0  0  0  0  0  0  0  0  0  0
    3.4261    1.0119    0.7044 C   0  0  0  0  0  0  0  0  0  0  0  0
    2.3889    1.0670   -0.2524 C   0  0  0  0  0  0  0  0  0  0  0  0
    2.0810    2.4362   -0.8832 C   0  0  0  0  0  0  0  0  0  0  0  0
    3.0500    2.7336   -2.0355 C   0  0  0  0  0  0  0  0  0  0  0  0
    2.1412    3.6175    0.1037 C   0  0  0  0  0  0  0  0  0  0  0  0
    1.7095   -0.1424   -0.6465 C   0  0  0  0  0  0  0  0  0  0  0  0
    0.6579   -0.0665   -1.7006 C   0  0  0  0  0  0  0  0  0  0  0  0
   -0.7468   -0.0056   -1.4688 C   0  0  0  0  0  0  0  0  0  0  0  0
   -1.4964   -0.2052    0.1974 P   0  0  0  0  0  0  0  0  0  0  0  0
   -2.1781    1.4614    0.6625 C   0  0  0  0  0  0  0  0  0  0  0  0
   -2.8364    2.2762   -0.4500 C   0  0  0  0  0  0  0  0  0  0  0  0
   -3.5264    3.5329    0.0951 C   0  0  0  0  0  0  0  0  0  0  0  0
   -2.8331    4.1336    1.3177 C   0  0  0  0  0  0  0  0  0  0  0  0
   -1.3500    3.7988    1.3429 C   0  0  0  0  0  0  0  0  0  0  0  0
   -1.1127    2.2875    1.4049 C   0  0  0  0  0  0  0  0  0  0  0  0
   -3.0644   -1.1972   -0.0598 C   0  0  0  0  0  0  0  0  0  0  0  0
   -2.8010   -2.5317   -0.7832 C   0  0  0  0  0  0  0  0  0  0  0  0
   -4.0807   -3.3504   -0.9510 C   0  0  0  0  0  0  0  0  0  0  0  0
   -4.7583   -3.6114    0.3880 C   0  0  0  0  0  0  0  0  0  0  0  0
   -5.0157   -2.3120    1.1396 C   0  0  0  0  0  0  0  0  0  0  0  0
   -3.7387   -1.4873    1.2991 C   0  0  0  0  0  0  0  0  0  0  0  0
   -1.5943    0.1363   -2.5918 C   0  0  0  0  0  0  0  0  0  0  0  0
   -1.1027    0.2051   -3.8969 C   0  0  0  0  0  0  0  0  0  0  0  0
    0.2587    0.1181   -4.1234 C   0  0  0  0  0  0  0  0  0  0  0  0
    1.1213   -0.0195   -3.0396 C   0  0  0  0  0  0  0  0  0  0  0  0
    0.4770   -4.3864    0.4835 H   0  0  0  0  0  0  0  0  0  0  0  0
   -0.1001   -2.7590    0.8666 H   0  0  0  0  0  0  0  0  0  0  0  0
    1.3346   -3.3919    1.6604 H   0  0  0  0  0  0  0  0  0  0  0  0
    2.5831   -3.4157   -0.4280 H   0  0  0  0  0  0  0  0  0  0  0  0
    0.0442   -2.6749   -1.8814 H   0  0  0  0  0  0  0  0  0  0  0  0
    0.9464   -4.1739   -1.9229 H   0  0  0  0  0  0  0  0  0  0  0  0
    1.6786   -2.7231   -2.5941 H   0  0  0  0  0  0  0  0  0  0  0  0
    3.5136   -2.2970    1.3240 H   0  0  0  0  0  0  0  0  0  0  0  0
    5.2326    0.8460    2.5301 H   0  0  0  0  0  0  0  0  0  0  0  0
    5.2641   -0.6921    4.4162 H   0  0  0  0  0  0  0  0  0  0  0  0
    3.5868   -0.2691    4.0374 H   0  0  0  0  0  0  0  0  0  0  0  0
    4.2310   -1.8518    3.5729 H   0  0  0  0  0  0  0  0  0  0  0  0
    5.9753   -1.9842    1.6200 H   0  0  0  0  0  0  0  0  0  0  0  0
    6.9956   -0.8554    2.5223 H   0  0  0  0  0  0  0  0  0  0  0  0
    6.5170   -0.4812    0.8590 H   0  0  0  0  0  0  0  0  0  0  0  0
    3.9507    1.9218    0.9855 H   0  0  0  0  0  0  0  0  0  0  0  0
    1.0582    2.4295   -1.2745 H   0  0  0  0  0  0  0  0  0  0  0  0
    2.7879    3.6788   -2.5240 H   0  0  0  0  0  0  0  0  0  0  0  0
    3.0385    1.9545   -2.8001 H   0  0  0  0  0  0  0  0  0  0  0  0
    4.0828    2.8175   -1.6775 H   0  0  0  0  0  0  0  0  0  0  0  0
    1.6296    3.3977    1.0439 H   0  0  0  0  0  0  0  0  0  0  0  0
    3.1716    3.8973    0.3501 H   0  0  0  0  0  0  0  0  0  0  0  0
    1.6704    4.5020   -0.3394 H   0  0  0  0  0  0  0  0  0  0  0  0
   -2.9598    1.2604    1.4042 H   0  0  0  0  0  0  0  0  0  0  0  0
   -3.5842    1.6908   -0.9945 H   0  0  0  0  0  0  0  0  0  0  0  0
   -2.0817    2.5881   -1.1832 H   0  0  0  0  0  0  0  0  0  0  0  0
   -3.5766    4.2795   -0.7070 H   0  0  0  0  0  0  0  0  0  0  0  0
   -4.5653    3.3002    0.3594 H   0  0  0  0  0  0  0  0  0  0  0  0
   -3.3049    3.7470    2.2298 H   0  0  0  0  0  0  0  0  0  0  0  0
   -2.9790    5.2197    1.3277 H   0  0  0  0  0  0  0  0  0  0  0  0
   -0.8753    4.2069    0.4420 H   0  0  0  0  0  0  0  0  0  0  0  0
   -0.8652    4.2816    2.1989 H   0  0  0  0  0  0  0  0  0  0  0  0
   -1.0985    1.9736    2.4576 H   0  0  0  0  0  0  0  0  0  0  0  0
   -0.1110    2.0774    1.0259 H   0  0  0  0  0  0  0  0  0  0  0  0
   -3.7623   -0.6069   -0.6637 H   0  0  0  0  0  0  0  0  0  0  0  0
   -2.3734   -2.3686   -1.7771 H   0  0  0  0  0  0  0  0  0  0  0  0
   -2.0730   -3.1324   -0.2259 H   0  0  0  0  0  0  0  0  0  0  0  0
   -4.7713   -2.8168   -1.6159 H   0  0  0  0  0  0  0  0  0  0  0  0
   -3.8453   -4.3048   -1.4354 H   0  0  0  0  0  0  0  0  0  0  0  0
   -5.7043   -4.1409    0.2283 H   0  0  0  0  0  0  0  0  0  0  0  0
   -4.1238   -4.2666    0.9976 H   0  0  0  0  0  0  0  0  0  0  0  0
   -5.4344   -2.5356    2.1274 H   0  0  0  0  0  0  0  0  0  0  0  0
   -5.7661   -1.7197    0.6014 H   0  0  0  0  0  0  0  0  0  0  0  0
   -3.0455   -2.0274    1.9585 H   0  0  0  0  0  0  0  0  0  0  0  0
   -4.0010   -0.5595    1.8183 H   0  0  0  0  0  0  0  0  0  0  0  0
   -2.6730    0.1810   -2.4742 H   0  0  0  0  0  0  0  0  0  0  0  0
   -1.7902    0.3106   -4.7317 H   0  0  0  0  0  0  0  0  0  0  0  0
    0.6537    0.1542   -5.1346 H   0  0  0  0  0  0  0  0  0  0  0  0
    2.1897   -0.1014   -3.2356 H   0  0  0  0  0  0  0  0  0  0  0  0
  1  2  1  0
  2  3  1  0
  2  4  1  0
  4  5  2  0
  5  6  1  0
  6  7  1  0
  7  8  1  0
  7  9  1  0
  6 10  2  0
 10 11  1  0
 11 12  1  0
 12 13  1  0
 12 14  1  0
  4 15  1  0
 15 16  1  0
 16 17  1  0
 17 18  1  0
 18 19  1  0
 19 20  1  0
 20 21  1  0
 21 22  1  0
 22 23  1  0
 23 24  1  0
 18 25  1  0
 25 26  1  0
 26 27  1  0
 27 28  1  0
 28 29  1  0
 29 30  1  0
 17 31  2  0
 31 32  1  0
 32 33  2  0
 33 34  1  0
 15 11  2  0
 34 16  2  0
 24 19  1  0
 30 25  1  0
  1 35  1  0
  1 36  1  0
  1 37  1  0
  2 38  1  0
  3 39  1  0
  3 40  1  0
  3 41  1  0
  5 42  1  0
  7 43  1  0
  8 44  1  0
  8 45  1  0
  8 46  1  0
  9 47  1  0
  9 48  1  0
  9 49  1  0
 10 50  1  0
 12 51  1  0
 13 52  1  0
 13 53  1  0
 13 54  1  0
 14 55  1  0
 14 56  1  0
 14 57  1  0
 19 58  1  0
 20 59  1  0
 20 60  1  0
 21 61  1  0
 21 62  1  0
 22 63  1  0
 22 64  1  0
 23 65  1  0
 23 66  1  0
 24 67  1  0
 24 68  1  0
 25 69  1  0
 26 70  1  0
 26 71  1  0
 27 72  1  0
 27 73  1  0
 28 74  1  0
 28 75  1  0
 29 76  1  0
 29 77  1  0
 30 78  1  0
 30 79  1  0
 31 80  1  0
 32 81  1  0
 33 82  1  0
 34 83  1  0
M  END
